    92
 
LA         -2.1848684207        0.3869348006        1.2679560756
LA          0.6104407762       -0.3690894417       -2.1507081715
LA          1.6248835696       -1.3074702204       -0.3713430027
LA         -0.1848572410        1.6423469412       -1.5179772526
LA          1.4565064742        0.1239344345        1.3610856125
LA         -0.4540447537       -1.9430946443       -0.9476304008
LA         -1.5688478714       -0.1235707048       -1.6560747473
LA          0.0695155931       -1.6391754306        1.2177228480
LA         -1.7387275854        1.2991784243        0.0802761064
LA         -0.7327633817        0.3685789002        1.8448272356
LA         -1.9043497632       -0.9005609998        0.4289902106
LA          1.2124512824        0.2725182841       -1.4504209289
LA          0.8107078864        1.2894144226       -1.1309346530
LA          1.6407406225        0.5215705300        0.3250028100
LA          1.1268665629       -0.8449667254       -1.2697983542
LA          1.5537714479       -0.5965199472        0.4998081124
LA          0.2152561803        0.6416787882       -1.8479985753
LA          0.9060402885        1.0432154939        1.0151202054
LA          0.0787624531        1.8085209973       -0.4360016688
LA          0.0799928675       -1.1646443320       -1.5592866496
LA         -0.4821528100       -0.2476533533       -1.9158958357
LA          0.8538434984       -1.4835275112        0.4275170969
LA          0.7696166800       -0.7630637939        1.2990896106
LA         -0.8818531438        0.7646747852       -1.5977026146
LA         -0.9679119638        1.4845906606       -0.7254826924
LA          0.3681311394        0.2486203761        1.6180603725
LA         -1.0177820484       -1.0410414607       -1.3105868704
LA         -0.1909485509        1.1657337025        1.2609328701
LA         -1.6637343268        0.5964013565       -0.7977683786
LA         -0.3272865737       -0.6399150912        1.5464486957
LA         -1.7478371101       -0.5214587791       -0.6203264906
LA         -0.9227990106       -1.2846736643        0.8268479655
LA         -1.2284366696        0.8459573619        0.9647606567
LA         -1.3130582200       -0.2775820154        1.1426748044
LA          0.8635124208        0.4534278652       -0.4348937040
LA          0.7718467249       -0.6400097960       -0.2592810803
LA          0.2739621103       -0.1794509948       -1.1325890821
LA         -0.1158361183        0.8076359871       -0.8224113105
LA          0.6897370756        0.0624162173        0.5906280584
LA          0.1411198806        0.9569901042        0.2425374358
LA         -0.2492149866       -0.9530145442       -0.5422588646
LA         -0.7969836327       -0.0595717170       -0.8896598221
LA          0.0073245577       -0.8036094440        0.5211469500
LA         -0.8771685808        0.6419692634       -0.0426983684
LA         -0.3795884021        0.1816723030        0.8300976046
LA         -0.9588181591       -0.4459080031        0.1297210713
LB         -2.2525284420       -0.1849185981        1.1928964312
LB          0.7433394937        0.7541526410       -2.0032750154
LB          1.8919757043        0.9499565733       -0.0750403962
LB         -0.5109847991       -1.1140393108       -1.8797716785
LB          1.3475282806       -0.7971345990        1.2401890430
LB          0.0327035027        2.1708361433       -0.4076490296
LB         -1.4480182037        0.8976653926       -1.5220305699
LB          0.4070903712        1.2139611843        1.5922164166
LB         -1.9920594147       -0.8419481194       -0.2007613019
LB         -0.8530109639       -0.6477374893        1.7114288034
LB         -1.6589171186        1.1738026971        0.7012645417
LB          1.1606844866       -0.1650077111       -1.5078491888
LB          0.5268801323       -1.1094595758       -1.4458031662
LB          1.4667216017       -0.9492148254        0.1319522378
LB          1.3284107504        0.8584576364       -1.0462123315
LB          1.6334151464        0.0766178790        0.5881620263
LB          0.1178273314       -0.1817767367       -1.9560827085
LB          0.6114814859       -1.4463558832        0.6883470449
LB         -0.3252424404       -1.6060740173       -0.8841904675
LB          0.3920348326        1.4726923821       -1.2131182844
LB         -0.3545282708        0.8310120844       -1.7743136671
LB          1.1582078944        1.0889194214        0.7651682373
LB          0.8846929766        0.2095455853        1.4267512008
LB         -0.9852578742       -0.1092880864       -1.7124161803
LB         -1.2604488417       -0.9878916802       -1.0500128008
LB          0.2523509863       -0.7299379033        1.4896179488
LB         -0.7117890766        1.5451699755       -0.9711290454
LB         -0.4912418351       -1.3723047416        0.9277980777
LB         -1.7313909624        0.0245765729       -0.8728242671
LB         -0.2181383379        0.2825911151        1.6675339040
LB         -1.5620411173        1.0488639590       -0.4142109604
LB         -0.6278569556        1.2081369100        1.1540462927
LB         -1.4182630238       -0.7584294489        0.7541739856
LB         -1.2481288784        0.2711920454        1.2147051290
LB          0.7491193174       -0.5134072571       -0.5617973837
LB          0.9055624915        0.4901378762       -0.1109415186
LB          0.3418151608        0.3940338602       -1.0573152979
LB         -0.2732477106       -0.5227856166       -0.9970381865
LB          0.6388988316       -0.3672617822        0.5342299012
LB         -0.0896156454       -0.9931555236       -0.0134324296
LB         -0.0074295414        1.0905235142       -0.2740306080
LB         -0.7348797373        0.4653220524       -0.8207639480
LB          0.1758321490        0.6205940502        0.7080833365
LB         -0.9993790824       -0.3909374567       -0.1782743942
LB         -0.4359725843       -0.2948792208        0.7675469788
LB         -0.8343714875        0.6058985252        0.2677778255
